Version 4
SHEET 1 1632 680
WIRE 368 -336 -144 -336
WIRE 544 -336 368 -336
WIRE 368 -288 368 -336
WIRE 368 -176 368 -224
WIRE 688 -64 592 -64
WIRE 816 -64 752 -64
WIRE 928 -64 816 -64
WIRE 368 -48 368 -96
WIRE 400 -48 368 -48
WIRE 544 -48 544 -336
WIRE 592 -48 592 -64
WIRE 816 -48 816 -64
WIRE 928 -48 928 -64
WIRE -272 48 -368 48
WIRE -192 48 -272 48
WIRE -144 48 -144 -336
WIRE -144 48 -192 48
WIRE 64 48 -144 48
WIRE 80 48 64 48
WIRE 352 48 304 48
WIRE 400 48 400 -48
WIRE 400 48 352 48
WIRE 432 48 400 48
WIRE 544 48 544 32
WIRE 544 48 432 48
WIRE -368 64 -368 48
WIRE -272 64 -272 48
WIRE -192 64 -192 48
WIRE 352 64 352 48
WIRE 592 80 592 32
WIRE 704 80 592 80
WIRE 816 80 816 16
WIRE 816 80 704 80
WIRE 928 80 928 32
WIRE 928 80 816 80
WIRE 64 144 64 48
WIRE 80 144 64 144
WIRE 352 144 304 144
WIRE -368 160 -368 144
WIRE -272 160 -272 128
WIRE -192 160 -192 128
WIRE 704 192 704 80
WIRE 0 240 -16 240
WIRE 80 240 64 240
WIRE 416 240 304 240
WIRE 432 240 416 240
WIRE 528 240 512 240
WIRE 80 336 64 336
WIRE 320 336 304 336
WIRE 416 336 416 240
WIRE 416 336 400 336
FLAG 64 336 0
FLAG -368 160 0
FLAG -16 240 0
FLAG 528 240 0
FLAG -368 48 IN
FLAG 928 -64 OUT
FLAG -272 160 0
FLAG 432 48 Vsw
FLAG 704 192 0
FLAG -192 160 0
SYMBOL voltage -368 48 R0
WINDOW 123 0 0 Left 0
WINDOW 39 0 0 Left 0
SYMATTR InstName V1
SYMATTR Value 12
SYMBOL cap 64 224 R90
WINDOW 0 0 32 VBottom 2
WINDOW 3 32 32 VTop 2
SYMATTR InstName C1
SYMATTR Value 1µ
SYMBOL ind2 528 -64 R0
WINDOW 0 1 27 Right 2
WINDOW 3 1 80 Right 2
SYMATTR InstName L1
SYMATTR Value 40µ
SYMATTR Type ind
SYMATTR SpiceLine Ipk=10 Rser=.085 Rpar=7k Cpar=5p
SYMBOL ind2 608 48 R180
WINDOW 0 1 84 Right 2
WINDOW 3 4 34 Right 2
SYMATTR InstName L2
SYMATTR Value .001
SYMATTR Type ind
SYMATTR SpiceLine Rser=3.6
SYMBOL diode 688 -48 R270
WINDOW 0 32 32 VTop 2
WINDOW 3 0 32 VBottom 2
SYMATTR InstName D1
SYMATTR Value RFN5BM3S
SYMBOL cap 800 -48 R0
WINDOW 3 38 37 Left 2
WINDOW 123 25 64 Left 2
SYMATTR Value 310n
SYMATTR InstName C2
SYMATTR SpiceLine Rser=2m
SYMBOL res 336 48 R0
SYMATTR InstName R1
SYMATTR Value 342K
SYMATTR SpiceLine tol=1 pwr=0.1
SYMBOL res 416 256 R270
WINDOW 0 32 56 VTop 2
WINDOW 3 0 56 VBottom 2
SYMATTR InstName R2
SYMATTR Value 10K
SYMBOL res 416 320 R90
WINDOW 0 0 56 VBottom 2
WINDOW 3 32 56 VTop 2
SYMATTR InstName R3
SYMATTR Value 100K
SYMBOL res 912 -64 R0
SYMATTR InstName Rload
SYMATTR Value 11.7K
SYMBOL LT8304 192 192 R0
SYMATTR InstName U1
SYMBOL cap -288 64 R0
SYMATTR InstName C4
SYMATTR Value 10µ
SYMBOL res 352 -192 R0
SYMATTR InstName R4
SYMATTR Value 100
SYMBOL cap 352 -288 R0
SYMATTR InstName C3
SYMATTR Value 270p
SYMBOL cap -208 64 R0
SYMATTR InstName C6
SYMATTR Value 10µ
TEXT 504 -88 Left 2 !K1 L1 L2 1
TEXT 744 104 Left 2 !.tran 0 5m 0 6u startup
TEXT 392 -344 Bottom 2 ;Input: 10V to 15V       Output: 190V @ 0.02A
